[root]
type=Root
children=system
eventq_index=0
full_system=true
sim_quantum=0
time_sync_enable=false
time_sync_period=100000000000
time_sync_spin_threshold=100000000

[system]
type=System
children=clk_domain cpu00 cpu01 cpu02 cpu03 cpu04 cpu05 cpu06 cpu07 cpu08 cpu09 cpu10 cpu11 cpu12 cpu13 cpu14 cpu15 cpu16 cpu17 cpu18 cpu19 cpu20 cpu21 cpu22 cpu23 cpu24 cpu25 cpu26 cpu27 cpu28 cpu29 cpu30 cpu31 cpu32 cpu33 cpu34 cpu35 cpu36 cpu37 cpu38 cpu39 cpu40 cpu41 cpu42 cpu43 cpu44 cpu45 cpu46 cpu47 cpu48 cpu49 cpu50 cpu51 cpu52 cpu53 cpu54 cpu55 cpu56 cpu57 cpu58 cpu59 cpu60 cpu61 cpu62 cpu63 cpu_clk_domain cpu_voltage_domain dvfs_handler intrctrl iobus kvm_vm mem_ctrls00 mem_ctrls01 mem_ctrls02 mem_ctrls03 mem_ctrls04 mem_ctrls05 mem_ctrls06 mem_ctrls07 mem_ctrls08 mem_ctrls09 mem_ctrls10 mem_ctrls11 mem_ctrls12 mem_ctrls13 mem_ctrls14 mem_ctrls15 mem_ctrls16 mem_ctrls17 mem_ctrls18 mem_ctrls19 mem_ctrls20 mem_ctrls21 mem_ctrls22 mem_ctrls23 mem_ctrls24 mem_ctrls25 mem_ctrls26 mem_ctrls27 mem_ctrls28 mem_ctrls29 mem_ctrls30 mem_ctrls31 mem_ctrls32 mem_ctrls33 mem_ctrls34 mem_ctrls35 mem_ctrls36 mem_ctrls37 mem_ctrls38 mem_ctrls39 mem_ctrls40 mem_ctrls41 mem_ctrls42 mem_ctrls43 mem_ctrls44 mem_ctrls45 mem_ctrls46 mem_ctrls47 mem_ctrls48 mem_ctrls49 mem_ctrls50 mem_ctrls51 mem_ctrls52 mem_ctrls53 mem_ctrls54 mem_ctrls55 mem_ctrls56 mem_ctrls57 mem_ctrls58 mem_ctrls59 mem_ctrls60 mem_ctrls61 mem_ctrls62 mem_ctrls63 pc redirect_paths0 redirect_paths1 redirect_paths2 ruby switch_cpus00 switch_cpus01 switch_cpus02 switch_cpus03 switch_cpus04 switch_cpus05 switch_cpus06 switch_cpus07 switch_cpus08 switch_cpus09 switch_cpus10 switch_cpus11 switch_cpus12 switch_cpus13 switch_cpus14 switch_cpus15 switch_cpus16 switch_cpus17 switch_cpus18 switch_cpus19 switch_cpus20 switch_cpus21 switch_cpus22 switch_cpus23 switch_cpus24 switch_cpus25 switch_cpus26 switch_cpus27 switch_cpus28 switch_cpus29 switch_cpus30 switch_cpus31 switch_cpus32 switch_cpus33 switch_cpus34 switch_cpus35 switch_cpus36 switch_cpus37 switch_cpus38 switch_cpus39 switch_cpus40 switch_cpus41 switch_cpus42 switch_cpus43 switch_cpus44 switch_cpus45 switch_cpus46 switch_cpus47 switch_cpus48 switch_cpus49 switch_cpus50 switch_cpus51 switch_cpus52 switch_cpus53 switch_cpus54 switch_cpus55 switch_cpus56 switch_cpus57 switch_cpus58 switch_cpus59 switch_cpus60 switch_cpus61 switch_cpus62 switch_cpus63 sys_port_proxy voltage_domain workload
cache_line_size=64
eventq_index=0
exit_on_work_items=true
init_param=0
kvm_vm=system.kvm_vm
m5ops_base=4294901760
mem_mode=atomic_noncaching
mem_ranges=0:536870912
memories=system.mem_ctrls00 system.mem_ctrls01 system.mem_ctrls02 system.mem_ctrls03 system.mem_ctrls04 system.mem_ctrls05 system.mem_ctrls06 system.mem_ctrls07 system.mem_ctrls08 system.mem_ctrls09 system.mem_ctrls10 system.mem_ctrls11 system.mem_ctrls12 system.mem_ctrls13 system.mem_ctrls14 system.mem_ctrls15 system.mem_ctrls16 system.mem_ctrls17 system.mem_ctrls18 system.mem_ctrls19 system.mem_ctrls20 system.mem_ctrls21 system.mem_ctrls22 system.mem_ctrls23 system.mem_ctrls24 system.mem_ctrls25 system.mem_ctrls26 system.mem_ctrls27 system.mem_ctrls28 system.mem_ctrls29 system.mem_ctrls30 system.mem_ctrls31 system.mem_ctrls32 system.mem_ctrls33 system.mem_ctrls34 system.mem_ctrls35 system.mem_ctrls36 system.mem_ctrls37 system.mem_ctrls38 system.mem_ctrls39 system.mem_ctrls40 system.mem_ctrls41 system.mem_ctrls42 system.mem_ctrls43 system.mem_ctrls44 system.mem_ctrls45 system.mem_ctrls46 system.mem_ctrls47 system.mem_ctrls48 system.mem_ctrls49 system.mem_ctrls50 system.mem_ctrls51 system.mem_ctrls52 system.mem_ctrls53 system.mem_ctrls54 system.mem_ctrls55 system.mem_ctrls56 system.mem_ctrls57 system.mem_ctrls58 system.mem_ctrls59 system.mem_ctrls60 system.mem_ctrls61 system.mem_ctrls62 system.mem_ctrls63
mmap_using_noreserve=false
multi_thread=false
num_work_ids=16
readfile=/home/theo/gem5_copy/run_canneal_simsmall_64
redirect_paths=system.redirect_paths0 system.redirect_paths1 system.redirect_paths2
symbolfile=
thermal_components=
thermal_model=Null
work_begin_ckpt_count=0
work_begin_cpu_id_exit=-1
work_begin_exit_count=0
work_cpus_ckpt_count=0
work_end_ckpt_count=0
work_end_exit_count=0
work_item_id=-1
workload=system.workload
system_port=system.sys_port_proxy.slave[0]

[system.clk_domain]
type=SrcClockDomain
clock=1000
domain_id=-1
eventq_index=0
init_perf_level=0
voltage_domain=system.voltage_domain

[system.cpu00]
type=X86KvmCPU
children=dtb interrupts isa itb power_state tracer
alwaysSyncTC=false
checker=Null
clk_domain=system.cpu_clk_domain
cpu_id=0
do_checkpoint_insts=true
do_quiesce=true
do_statistics_insts=true
dtb=system.cpu00.dtb
eventq_index=0
function_trace=false
function_trace_start=0
hostFactor=1.0
hostFreq=500
interrupts=system.cpu00.interrupts
isa=system.cpu00.isa
itb=system.cpu00.itb
max_insts_all_threads=0
max_insts_any_thread=0
numThreads=1
power_gating_on_idle=false
power_model=
power_state=system.cpu00.power_state
profile=0
progress_interval=0
pwr_gating_latency=300
simpoint_start_insts=
socket_id=0
switched_out=false
syscallRetryLatency=10000
system=system
tracer=system.cpu00.tracer
useCoalescedMMIO=false
usePerfOverflow=false
useXSave=true
wait_for_remote_gdb=false
workload=
dcache_port=system.ruby.l1_cntrl0.sequencer.slave[1]
icache_port=system.ruby.l1_cntrl0.sequencer.slave[0]

[system.cpu00.dtb]
type=X86TLB
children=walker
eventq_index=0
size=64
system=system
walker=system.cpu00.dtb.walker

[system.cpu00.dtb.walker]
type=X86PagetableWalker
children=power_state
clk_domain=system.cpu_clk_domain
eventq_index=0
num_squash_per_cycle=4
power_model=
power_state=system.cpu00.dtb.walker.power_state
system=system
port=system.ruby.l1_cntrl0.sequencer.slave[3]

[system.cpu00.dtb.walker.power_state]
type=PowerState
clk_gate_bins=20
clk_gate_max=1000000000000
clk_gate_min=1000
default_state=UNDEFINED
eventq_index=0
leaders=
possible_states=

[system.cpu00.interrupts]
type=X86LocalApic
children=clk_domain
clk_domain=system.cpu00.interrupts.clk_domain
eventq_index=0
int_latency=1000
pio_latency=100000
system=system
int_master=system.ruby.l1_cntrl0.sequencer.slave[4]
int_slave=system.ruby.l1_cntrl0.sequencer.master[1]
pio=system.ruby.l1_cntrl0.sequencer.master[0]

[system.cpu00.interrupts.clk_domain]
type=DerivedClockDomain
clk_divider=16
clk_domain=system.cpu_clk_domain
eventq_index=0

[system.cpu00.isa]
type=X86ISA
eventq_index=0

[system.cpu00.itb]
type=X86TLB
children=walker
eventq_index=0
size=64
system=system
walker=system.cpu00.itb.walker

[system.cpu00.itb.walker]
type=X86PagetableWalker
children=power_state
clk_domain=system.cpu_clk_domain
eventq_index=0
num_squash_per_cycle=4
power_model=
power_state=system.cpu00.itb.walker.power_state
system=system
port=system.ruby.l1_cntrl0.sequencer.slave[2]

[system.cpu00.itb.walker.power_state]
type=PowerState
clk_gate_bins=20
clk_gate_max=1000000000000
clk_gate_min=1000
default_state=UNDEFINED
eventq_index=0
leaders=
possible_states=

[system.cpu00.power_state]
type=PowerState
clk_gate_bins=20
clk_gate_max=1000000000000
clk_gate_min=1000
default_state=UNDEFINED
eventq_index=0
leaders=
possible_states=ON CLK_GATED OFF

[system.cpu00.tracer]
type=ExeTracer
eventq_index=0

[system.cpu01]
type=X86KvmCPU
children=dtb interrupts isa itb power_state tracer
alwaysSyncTC=false
checker=Null
clk_domain=system.cpu_clk_domain
cpu_id=1
do_checkpoint_insts=true
do_quiesce=true
do_statistics_insts=true
dtb=system.cpu01.dtb
eventq_index=0
function_trace=false
function_trace_start=0
hostFactor=1.0
hostFreq=500
interrupts=system.cpu01.interrupts
isa=system.cpu01.isa
itb=system.cpu01.itb
max_insts_all_threads=0
max_insts_any_thread=0
numThreads=1
power_gating_on_idle=false
power_model=
power_state=system.cpu01.power_state
profile=0
progress_interval=0
pwr_gating_latency=300
simpoint_start_insts=
socket_id=0
switched_out=false
syscallRetryLatency=10000
system=system
tracer=system.cpu01.tracer
useCoalescedMMIO=false
usePerfOverflow=false
useXSave=true
wait_for_remote_gdb=false
workload=
dcache_port=system.ruby.l1_cntrl1.sequencer.slave[1]
icache_port=system.ruby.l1_cntrl1.sequencer.slave[0]

[system.cpu01.dtb]
type=X86TLB
children=walker
eventq_index=0
size=64
system=system
walker=system.cpu01.dtb.walker

[system.cpu01.dtb.walker]
type=X86PagetableWalker
children=power_state
clk_domain=system.cpu_clk_domain
eventq_index=0
num_squash_per_cycle=4
power_model=
power_state=system.cpu01.dtb.walker.power_state
system=system
port=system.ruby.l1_cntrl1.sequencer.slave[3]

[system.cpu01.dtb.walker.power_state]
type=PowerState
clk_gate_bins=20
clk_gate_max=1000000000000
clk_gate_min=1000
default_state=UNDEFINED
eventq_index=0
leaders=
possible_states=

[system.cpu01.interrupts]
type=X86LocalApic
children=clk_domain
clk_domain=system.cpu01.interrupts.clk_domain
eventq_index=0
int_latency=1000
pio_latency=100000
system=system
int_master=system.ruby.l1_cntrl1.sequencer.slave[4]
int_slave=system.ruby.l1_cntrl1.sequencer.master[1]
pio=system.ruby.l1_cntrl1.sequencer.master[0]

[system.cpu01.interrupts.clk_domain]
type=DerivedClockDomain
clk_divider=16
clk_domain=system.cpu_clk_domain
eventq_index=0

[system.cpu01.isa]
type=X86ISA
eventq_index=0

[system.cpu01.itb]
type=X86TLB
children=walker
eventq_index=0
size=64
system=system
walker=system.cpu01.itb.walker

[system.cpu01.itb.walker]
type=X86PagetableWalker
children=power_state
clk_domain=system.cpu_clk_domain
eventq_index=0
num_squash_per_cycle=4
power_model=
power_state=system.cpu01.itb.walker.power_state
system=system
port=system.ruby.l1_cntrl1.sequencer.slave[2]

[system.cpu01.itb.walker.power_state]
type=PowerState
clk_gate_bins=20
clk_gate_max=1000000000000
clk_gate_min=1000
default_state=UNDEFINED
eventq_index=0
leaders=
possible_states=

[system.cpu01.power_state]
type=PowerState
clk_gate_bins=20
clk_gate_max=1000000000000
clk_gate_min=1000
default_state=UNDEFINED
eventq_index=0
leaders=
possible_states=ON CLK_GATED OFF

[system.cpu01.tracer]
type=ExeTracer
eventq_index=0

[system.cpu02]
type=X86KvmCPU
children=dtb interrupts isa itb power_state tracer
alwaysSyncTC=false
checker=Null
clk_domain=system.cpu_clk_domain
cpu_id=2
do_checkpoint_insts=true
do_quiesce=true
do_statistics_insts=true
dtb=system.cpu02.dtb
eventq_index=0
function_trace=false
function_trace_start=0
hostFactor=1.0
hostFreq=500
interrupts=system.cpu02.interrupts
isa=system.cpu02.isa
itb=system.cpu02.itb
max_insts_all_threads=0
max_insts_any_thread=0
numThreads=1
power_gating_on_idle=false
power_model=
power_state=system.cpu02.power_state
profile=0
progress_interval=0
pwr_gating_latency=300
simpoint_start_insts=
socket_id=0
switched_out=false
syscallRetryLatency=10000
system=system
tracer=system.cpu02.tracer
useCoalescedMMIO=false
usePerfOverflow=false
useXSave=true
wait_for_remote_gdb=false
workload=
dcache_port=system.ruby.l1_cntrl2.sequencer.slave[1]
icache_port=system.ruby.l1_cntrl2.sequencer.slave[0]

[system.cpu02.dtb]
type=X86TLB
children=walker
eventq_index=0
size=64
system=system
walker=system.cpu02.dtb.walker

[system.cpu02.dtb.walker]
type=X86PagetableWalker
children=power_state
clk_domain=system.cpu_clk_domain
eventq_index=0
num_squash_per_cycle=4
power_model=
power_state=system.cpu02.dtb.walker.power_state
system=system
port=system.ruby.l1_cntrl2.sequencer.slave[3]

[system.cpu02.dtb.walker.power_state]
type=PowerState
clk_gate_bins=20
clk_gate_max=1000000000000
clk_gate_min=1000
default_state=UNDEFINED
eventq_index=0
leaders=
possible_states=

[system.cpu02.interrupts]
type=X86LocalApic
children=clk_domain
clk_domain=system.cpu02.interrupts.clk_domain
eventq_index=0
int_latency=1000
pio_latency=100000
system=system
int_master=system.ruby.l1_cntrl2.sequencer.slave[4]
int_slave=system.ruby.l1_cntrl2.sequencer.master[1]
pio=system.ruby.l1_cntrl2.sequencer.master[0]

[system.cpu02.interrupts.clk_domain]
type=DerivedClockDomain
clk_divider=16
clk_domain=system.cpu_clk_domain
eventq_index=0

[system.cpu02.isa]
type=X86ISA
eventq_index=0

[system.cpu02.itb]
type=X86TLB
children=walker
eventq_index=0
size=64
system=system
walker=system.cpu02.itb.walker

[system.cpu02.itb.walker]
type=X86PagetableWalker
children=power_state
clk_domain=system.cpu_clk_domain
eventq_index=0
num_squash_per_cycle=4
power_model=
power_state=system.cpu02.itb.walker.power_state
system=system
port=system.ruby.l1_cntrl2.sequencer.slave[2]

[system.cpu02.itb.walker.power_state]
type=PowerState
clk_gate_bins=20
clk_gate_max=1000000000000
clk_gate_min=1000
default_state=UNDEFINED
eventq_index=0
leaders=
possible_states=

[system.cpu02.power_state]
type=PowerState
clk_gate_bins=20
clk_gate_max=1000000000000
clk_gate_min=1000
default_state=UNDEFINED
eventq_index=0
leaders=
possible_states=ON CLK_GATED OFF

[system.cpu02.tracer]
type=ExeTracer
eventq_index=0

[system.cpu03]
type=X86KvmCPU
children=dtb interrupts isa itb power_state tracer
alwaysSyncTC=false
checker=Null
clk_domain=system.cpu_clk_domain
cpu_id=3
do_checkpoint_insts=true
do_quiesce=true
do_statistics_insts=true
dtb=system.cpu03.dtb
eventq_index=0
function_trace=false
function_trace_start=0
hostFactor=1.0
hostFreq=500
interrupts=system.cpu03.interrupts
isa=system.cpu03.isa
itb=system.cpu03.itb
max_insts_all_threads=0
max_insts_any_thread=0
numThreads=1
power_gating_on_idle=false
power_model=
power_state=system.cpu03.power_state
profile=0
progress_interval=0
pwr_gating_latency=300
simpoint_start_insts=
socket_id=0
switched_out=false
syscallRetryLatency=10000
system=system
tracer=system.cpu03.tracer
useCoalescedMMIO=false
usePerfOverflow=false
useXSave=true
wait_for_remote_gdb=false
workload=
dcache_port=system.ruby.l1_cntrl3.sequencer.slave[1]
icache_port=system.ruby.l1_cntrl3.sequencer.slave[0]

[system.cpu03.dtb]
type=X86TLB
children=walker
eventq_index=0
size=64
system=system
walker=system.cpu03.dtb.walker

[system.cpu03.dtb.walker]
type=X86PagetableWalker
children=power_state
clk_domain=system.cpu_clk_domain
eventq_index=0
num_squash_per_cycle=4
power_model=
power_state=system.cpu03.dtb.walker.power_state
system=system
port=system.ruby.l1_cntrl3.sequencer.slave[3]

[system.cpu03.dtb.walker.power_state]
type=PowerState
clk_gate_bins=20
clk_gate_max=1000000000000
clk_gate_min=1000
default_state=UNDEFINED
eventq_index=0
leaders=
possible_states=

[system.cpu03.interrupts]
type=X86LocalApic
children=clk_domain
clk_domain=system.cpu03.interrupts.clk_domain
eventq_index=0
int_latency=1000
pio_latency=100000
system=system
int_master=system.ruby.l1_cntrl3.sequencer.slave[4]
int_slave=system.ruby.l1_cntrl3.sequencer.master[1]
pio=system.ruby.l1_cntrl3.sequencer.master[0]

[system.cpu03.interrupts.clk_domain]
type=DerivedClockDomain
clk_divider=16
clk_domain=system.cpu_clk_domain
eventq_index=0

[system.cpu03.isa]
type=X86ISA
eventq_index=0

[system.cpu03.itb]
type=X86TLB
children=walker
eventq_index=0
size=64
system=system
walker=system.cpu03.itb.walker

[system.cpu03.itb.walker]
type=X86PagetableWalker
children=power_state
clk_domain=system.cpu_clk_domain
eventq_index=0
num_squash_per_cycle=4
power_model=
power_state=system.cpu03.itb.walker.power_state
system=system
port=system.ruby.l1_cntrl3.sequencer.slave[2]

[system.cpu03.itb.walker.power_state]
type=PowerState
clk_gate_bins=20
clk_gate_max=1000000000000
clk_gate_min=1000
default_state=UNDEFINED
eventq_index=0
leaders=
possible_states=

[system.cpu03.power_state]
type=PowerState
clk_gate_bins=20
clk_gate_max=1000000000000
clk_gate_min=1000
default_state=UNDEFINED
eventq_index=0
leaders=
possible_states=ON CLK_GATED OFF

[system.cpu03.tracer]
type=ExeTracer
eventq_index=0

[system.cpu04]
type=X86KvmCPU
children=dtb interrupts isa itb power_state tracer
alwaysSyncTC=false
checker=Null
clk_domain=system.cpu_clk_domain
cpu_id=4
do_checkpoint_insts=true
do_quiesce=true
do_statistics_insts=true
dtb=system.cpu04.dtb
eventq_index=0
function_trace=false
function_trace_start=0
hostFactor=1.0
hostFreq=500
interrupts=system.cpu04.interrupts
isa=system.cpu04.isa
itb=system.cpu04.itb
max_insts_all_threads=0
max_insts_any_thread=0
numThreads=1
power_gating_on_idle=false
power_model=
power_state=system.cpu04.power_state
profile=0
progress_interval=0
pwr_gating_latency=300
simpoint_start_insts=
socket_id=0
switched_out=false
syscallRetryLatency=10000
system=system
tracer=system.cpu04.tracer
useCoalescedMMIO=false
usePerfOverflow=false
useXSave=true
wait_for_remote_gdb=false
workload=
dcache_port=system.ruby.l1_cntrl4.sequencer.slave[1]
icache_port=system.ruby.l1_cntrl4.sequencer.slave[0]

[system.cpu04.dtb]
type=X86TLB
children=walker
eventq_index=0
size=64
system=system
walker=system.cpu04.dtb.walker

[system.cpu04.dtb.walker]
type=X86PagetableWalker
children=power_state
clk_domain=system.cpu_clk_domain
eventq_index=0
num_squash_per_cycle=4
power_model=
power_state=system.cpu04.dtb.walker.power_state
system=system
port=system.ruby.l1_cntrl4.sequencer.slave[3]

[system.cpu04.dtb.walker.power_state]
type=PowerState
clk_gate_bins=20
clk_gate_max=1000000000000
clk_gate_min=1000
default_state=UNDEFINED
eventq_index=0
leaders=
possible_states=

[system.cpu04.interrupts]
type=X86LocalApic
children=clk_domain
clk_domain=system.cpu04.interrupts.clk_domain
eventq_index=0
int_latency=1000
pio_latency=100000
system=system
int_master=system.ruby.l1_cntrl4.sequencer.slave[4]
int_slave=system.ruby.l1_cntrl4.sequencer.master[1]
pio=system.ruby.l1_cntrl4.sequencer.master[0]

[system.cpu04.interrupts.clk_domain]
type=DerivedClockDomain
clk_divider=16
clk_domain=system.cpu_clk_domain
eventq_index=0

[system.cpu04.isa]
type=X86ISA
eventq_index=0

[system.cpu04.itb]
type=X86TLB
children=walker
eventq_index=0
size=64
system=system
walker=system.cpu04.itb.walker

[system.cpu04.itb.walker]
type=X86PagetableWalker
children=power_state
clk_domain=system.cpu_clk_domain
eventq_index=0
num_squash_per_cycle=4
power_model=
power_state=system.cpu04.itb.walker.power_state
system=system
port=system.ruby.l1_cntrl4.sequencer.slave[2]

[system.cpu04.itb.walker.power_state]
type=PowerState
clk_gate_bins=20
clk_gate_max=1000000000000
clk_gate_min=1000
default_state=UNDEFINED
eventq_index=0
leaders=
possible_states=

[system.cpu04.power_state]
type=PowerState
clk_gate_bins=20
clk_gate_max=1000000000000
clk_gate_min=1000
default_state=UNDEFINED
eventq_index=0
leaders=
possible_states=ON CLK_GATED OFF

[system.cpu04.tracer]
type=ExeTracer
eventq_index=0

[system.cpu05]
type=X86KvmCPU
children=dtb interrupts isa itb power_state tracer
alwaysSyncTC=false
checker=Null
clk_domain=system.cpu_clk_domain
cpu_id=5
do_checkpoint_insts=true
do_quiesce=true
do_statistics_insts=true
dtb=system.cpu05.dtb
eventq_index=0
function_trace=false
function_trace_start=0
hostFactor=1.0
hostFreq=500
interrupts=system.cpu05.interrupts
isa=system.cpu05.isa
itb=system.cpu05.itb
max_insts_all_threads=0
max_insts_any_thread=0
numThreads=1
power_gating_on_idle=false
power_model=
power_state=system.cpu05.power_state
profile=0
progress_interval=0
pwr_gating_latency=300
simpoint_start_insts=
socket_id=0
switched_out=false
syscallRetryLatency=10000
system=system
tracer=system.cpu05.tracer
useCoalescedMMIO=false
usePerfOverflow=false
useXSave=true
wait_for_remote_gdb=false
workload=
dcache_port=system.ruby.l1_cntrl5.sequencer.slave[1]
icache_port=system.ruby.l1_cntrl5.sequencer.slave[0]

[system.cpu05.dtb]
type=X86TLB
children=walker
eventq_index=0
size=64
system=system
walker=system.cpu05.dtb.walker

[system.cpu05.dtb.walker]
type=X86PagetableWalker
children=power_state
clk_domain=system.cpu_clk_domain
eventq_index=0
num_squash_per_cycle=4
power_model=
power_state=system.cpu05.dtb.walker.power_state
system=system
port=system.ruby.l1_cntrl5.sequencer.slave[3]

[system.cpu05.dtb.walker.power_state]
type=PowerState
clk_gate_bins=20
clk_gate_max=1000000000000
clk_gate_min=1000
default_state=UNDEFINED
eventq_index=0
leaders=
possible_states=

[system.cpu05.interrupts]
type=X86LocalApic
children=clk_domain
clk_domain=system.cpu05.interrupts.clk_domain
eventq_index=0
int_latency=1000
pio_latency=100000
system=system
int_master=system.ruby.l1_cntrl5.sequencer.slave[4]
int_slave=system.ruby.l1_cntrl5.sequencer.master[1]
pio=system.ruby.l1_cntrl5.sequencer.master[0]

[system.cpu05.interrupts.clk_domain]
type=DerivedClockDomain
clk_divider=16
clk_domain=system.cpu_clk_domain
eventq_index=0

[system.cpu05.isa]
type=X86ISA
eventq_index=0

[system.cpu05.itb]
type=X86TLB
children=walker
eventq_index=0
size=64
system=system
walker=system.cpu05.itb.walker

[system.cpu05.itb.walker]
type=X86PagetableWalker
children=power_state
clk_domain=system.cpu_clk_domain
eventq_index=0
num_squash_per_cycle=4
power_model=
power_state=system.cpu05.itb.walker.power_state
system=system
port=system.ruby.l1_cntrl5.sequencer.slave[2]

[system.cpu05.itb.walker.power_state]
type=PowerState
clk_gate_bins=20
clk_gate_max=1000000000000
clk_gate_min=1000
default_state=UNDEFINED
eventq_index=0
leaders=
possible_states=

[system.cpu05.power_state]
type=PowerState
clk_gate_bins=20
clk_gate_max=1000000000000
clk_gate_min=1000
default_state=UNDEFINED
eventq_index=0
leaders=
possible_states=ON CLK_GATED OFF

[system.cpu05.tracer]
type=ExeTracer
eventq_index=0

[system.cpu06]
type=X86KvmCPU
children=dtb interrupts isa itb power_state tracer
alwaysSyncTC=false
checker=Null
clk_domain=system.cpu_clk_domain
cpu_id=6
do_checkpoint_insts=true
do_quiesce=true
do_statistics_insts=true
dtb=system.cpu06.dtb
eventq_index=0
function_trace=false
function_trace_start=0
hostFactor=1.0
hostFreq=500
interrupts=system.cpu06.interrupts
isa=system.cpu06.isa
itb=system.cpu06.itb
max_insts_all_threads=0
max_insts_any_thread=0
numThreads=1
power_gating_on_idle=false
power_model=
power_state=system.cpu06.power_state
profile=0
progress_interval=0
pwr_gating_latency=300
simpoint_start_insts=
socket_id=0
switched_out=false
syscallRetryLatency=10000
system=system
tracer=system.cpu06.tracer
useCoalescedMMIO=false
usePerfOverflow=false
useXSave=true
wait_for_remote_gdb=false
workload=
dcache_port=system.ruby.l1_cntrl6.sequencer.slave[1]
icache_port=system.ruby.l1_cntrl6.sequencer.slave[0]

[system.cpu06.dtb]
type=X86TLB
children=walker
eventq_index=0
size=64
system=system
walker=system.cpu06.dtb.walker

[system.cpu06.dtb.walker]
type=X86PagetableWalker
children=power_state
clk_domain=system.cpu_clk_domain
eventq_index=0
num_squash_per_cycle=4
power_model=
power_state=system.cpu06.dtb.walker.power_state
system=system
port=system.ruby.l1_cntrl6.sequencer.slave[3]

[system.cpu06.dtb.walker.power_state]
type=PowerState
clk_gate_bins=20
clk_gate_max=1000000000000
clk_gate_min=1000
default_state=UNDEFINED
eventq_index=0
leaders=
possible_states=

[system.cpu06.interrupts]
type=X86LocalApic
children=clk_domain
clk_domain=system.cpu06.interrupts.clk_domain
eventq_index=0
int_latency=1000
pio_latency=100000
system=system
int_master=system.ruby.l1_cntrl6.sequencer.slave[4]
int_slave=system.ruby.l1_cntrl6.sequencer.master[1]
pio=system.ruby.l1_cntrl6.sequencer.master[0]

[system.cpu06.interrupts.clk_domain]
type=DerivedClockDomain
clk_divider=16
clk_domain=system.cpu_clk_domain
eventq_index=0

[system.cpu06.isa]
type=X86ISA
eventq_index=0

[system.cpu06.itb]
type=X86TLB
children=walker
eventq_index=0
size=64
system=system
walker=system.cpu06.itb.walker

[system.cpu06.itb.walker]
type=X86PagetableWalker
children=power_state
clk_domain=system.cpu_clk_domain
eventq_index=0
num_squash_per_cycle=4
power_model=
power_state=system.cpu06.itb.walker.power_state
system=system
port=system.ruby.l1_cntrl6.sequencer.slave[2]

[system.cpu06.itb.walker.power_state]
type=PowerState
clk_gate_bins=20
clk_gate_max=1000000000000
clk_gate_min=1000
default_state=UNDEFINED
eventq_index=0
leaders=
possible_states=

[system.cpu06.power_state]
type=PowerState
clk_gate_bins=20
clk_gate_max=1000000000000
clk_gate_min=1000
default_state=UNDEFINED
eventq_index=0
leaders=
possible_states=ON CLK_GATED OFF

[system.cpu06.tracer]
type=ExeTracer
eventq_index=0

[system.cpu07]
type=X86KvmCPU
children=dtb interrupts isa itb power_state tracer
alwaysSyncTC=false
checker=Null
clk_domain=system.cpu_clk_domain
cpu_id=7
do_checkpoint_insts=true
do_quiesce=true
do_statistics_insts=true
dtb=system.cpu07.dtb
eventq_index=0
function_trace=false
function_trace_start=0
hostFactor=1.0
hostFreq=500
interrupts=system.cpu07.interrupts
isa=system.cpu07.isa
itb=system.cpu07.itb
max_insts_all_threads=0
max_insts_any_thread=0
numThreads=1
power_gating_on_idle=false
power_model=
power_state=system.cpu07.power_state
profile=0
progress_interval=0
pwr_gating_latency=300
simpoint_start_insts=
socket_id=0
switched_out=false
syscallRetryLatency=10000
system=system
tracer=system.cpu07.tracer
useCoalescedMMIO=false
usePerfOverflow=false
useXSave=true
wait_for_remote_gdb=false
workload=
dcache_port=system.ruby.l1_cntrl7.sequencer.slave[1]
icache_port=system.ruby.l1_cntrl7.sequencer.slave[0]

[system.cpu07.dtb]
type=X86TLB
children=walker
eventq_index=0
size=64
system=system
walker=system.cpu07.dtb.walker

[system.cpu07.dtb.walker]
type=X86PagetableWalker
children=power_state
clk_domain=system.cpu_clk_domain
eventq_index=0
num_squash_per_cycle=4
power_model=
power_state=system.cpu07.dtb.walker.power_state
system=system
port=system.ruby.l1_cntrl7.sequencer.slave[3]

[system.cpu07.dtb.walker.power_state]
type=PowerState
clk_gate_bins=20
clk_gate_max=1000000000000
clk_gate_min=1000
default_state=UNDEFINED
eventq_index=0
leaders=
possible_states=

[system.cpu07.interrupts]
type=X86LocalApic
children=clk_domain
clk_domain=system.cpu07.interrupts.clk_domain
eventq_index=0
int_latency=1000
pio_latency=100000
system=system
int_master=system.ruby.l1_cntrl7.sequencer.slave[4]
int_slave=system.ruby.l1_cntrl7.sequencer.master[1]
pio=system.ruby.l1_cntrl7.sequencer.master[0]

[system.cpu07.interrupts.clk_domain]
type=DerivedClockDomain
clk_divider=16
clk_domain=system.cpu_clk_domain
eventq_index=0

[system.cpu07.isa]
type=X86ISA
eventq_index=0

[system.cpu07.itb]
type=X86TLB
children=walker
eventq_index=0
size=64
system=system
walker=system.cpu07.itb.walker

[system.cpu07.itb.walker]
type=X86PagetableWalker
children=power_state
clk_domain=system.cpu_clk_domain
eventq_index=0
num_squash_per_cycle=4
power_model=
power_state=system.cpu07.itb.walker.power_state
system=system
port=system.ruby.l1_cntrl7.sequencer.slave[2]

[system.cpu07.itb.walker.power_state]
type=PowerState
clk_gate_bins=20
clk_gate_max=1000000000000
clk_gate_min=1000
default_state=UNDEFINED
eventq_index=0
leaders=
possible_states=

[system.cpu07.power_state]
type=PowerState
clk_gate_bins=20
clk_gate_max=1000000000000
clk_gate_min=1000
default_state=UNDEFINED
eventq_index=0
leaders=
possible_states=ON CLK_GATED OFF

[system.cpu07.tracer]
type=ExeTracer
eventq_index=0

[system.cpu08]
type=X86KvmCPU
children=dtb interrupts isa itb power_state tracer
alwaysSyncTC=false
checker=Null
clk_domain=system.cpu_clk_domain
cpu_id=8
do_checkpoint_insts=true
do_quiesce=true
do_statistics_insts=true
dtb=system.cpu08.dtb
eventq_index=0
function_trace=false
function_trace_start=0
hostFactor=1.0
hostFreq=500
interrupts=system.cpu08.interrupts
isa=system.cpu08.isa
itb=system.cpu08.itb
max_insts_all_threads=0
max_insts_any_thread=0
numThreads=1
power_gating_on_idle=false
power_model=
power_state=system.cpu08.power_state
profile=0
progress_interval=0
pwr_gating_latency=300
simpoint_start_insts=
socket_id=0
switched_out=false
syscallRetryLatency=10000
system=system
tracer=system.cpu08.tracer
useCoalescedMMIO=false
usePerfOverflow=false
useXSave=true
wait_for_remote_gdb=false
workload=
dcache_port=system.ruby.l1_cntrl8.sequencer.slave[1]
icache_port=system.ruby.l1_cntrl8.sequencer.slave[0]

[system.cpu08.dtb]
type=X86TLB
children=walker
eventq_index=0
size=64
system=system
walker=system.cpu08.dtb.walker

[system.cpu08.dtb.walker]
type=X86PagetableWalker
children=power_state
clk_domain=system.cpu_clk_domain
eventq_index=0
num_squash_per_cycle=4
power_model=
power_state=system.cpu08.dtb.walker.power_state
system=system
port=system.ruby.l1_cntrl8.sequencer.slave[3]

[system.cpu08.dtb.walker.power_state]
type=PowerState
clk_gate_bins=20
clk_gate_max=1000000000000
clk_gate_min=1000
default_state=UNDEFINED
eventq_index=0
leaders=
possible_states=

[system.cpu08.interrupts]
type=X86LocalApic
children=clk_domain
clk_domain=system.cpu08.interrupts.clk_domain
eventq_index=0
int_latency=1000
pio_latency=100000
system=system
int_master=system.ruby.l1_cntrl8.sequencer.slave[4]
int_slave=system.ruby.l1_cntrl8.sequencer.master[1]
pio=system.ruby.l1_cntrl8.sequencer.master[0]

[system.cpu08.interrupts.clk_domain]
type=DerivedClockDomain
clk_divider=16
clk_domain=system.cpu_clk_domain
eventq_index=0

[system.cpu08.isa]
type=X86ISA
eventq_index=0

[system.cpu08.itb]
type=X86TLB
children=walker
eventq_index=0
size=64
system=system
walker=system.cpu08.itb.walker

[system.cpu08.itb.walker]
type=X86PagetableWalker
children=power_state
clk_domain=system.cpu_clk_domain
eventq_index=0
num_squash_per_cycle=4
power_model=
power_state=system.cpu08.itb.walker.power_state
system=system
port=system.ruby.l1_cntrl8.sequencer.slave[2]

[system.cpu08.itb.walker.power_state]
type=PowerState
clk_gate_bins=20
clk_gate_max=1000000000000
clk_gate_min=1000
default_state=UNDEFINED
eventq_index=0
leaders=
possible_states=

[system.cpu08.power_state]
type=PowerState
clk_gate_bins=20
clk_gate_max=1000000000000
clk_gate_min=1000
default_state=UNDEFINED
eventq_index=0
leaders=
possible_states=ON CLK_GATED OFF

[system.cpu08.tracer]
type=ExeTracer
eventq_index=0

[system.cpu09]
type=X86KvmCPU
children=dtb interrupts isa itb power_state tracer
alwaysSyncTC=false
checker=Null
clk_domain=system.cpu_clk_domain
cpu_id=9
do_checkpoint_insts=true
do_quiesce=true
do_statistics_insts=true
dtb=system.cpu09.dtb
eventq_index=0
function_trace=false
function_trace_start=0
hostFactor=1.0
hostFreq=500
interrupts=system.cpu09.interrupts
isa=system.cpu09.isa
itb=system.cpu09.itb
max_insts_all_threads=0
max_insts_any_thread=0
numThreads=1
power_gating_on_idle=false
power_model=
power_state=system.cpu09.power_state
profile=0